.SUBCKT AND3 A B C Y VDD VTHRESH
E_ABMGATE    Y 0 VALUE {{IF(V(A) > V(VTHRESH)  &  + V(B) > V(VTHRESH) & + V(C) > V(VTHRESH),V(VDD),0.0)}}
.ENDS AND3_BASIC_GEN
*$