.SUBCKT E_ABM1 N15987135 VDD_OK N15980193

EABM1         N15980193 0 VALUE {
+  IF(V(N15987135)>(3.8-V(VDD_OK)*0.25),IF(V(N15987135)>5.05,5,V(N15987135)-0.05),0)
+     }

.ENDS E_U4_E1