.SUBCKT E_ABM2 N15987135 VDD_OK 

EABM2   VDD_OK 0 VALUE { IF(V(N15987135)>(3.8-V(VDD_OK)*0.25),1,0)    }

.ENDS E_U4_E1