.SUBCKT E_U4_E1 DRV U4_N14518546 OUTH

E_U4E1   U4_N14518546 OUTH VALUE { IF(V(DRV, 0) > 0.5, 5, -5) }

.ENDS E_U4_E1