.SUBCKT E_U4_E2 DRV  U4_N14518578 OUTL

 E_U4E2         OUTL U4_N14518578 VALUE { IF(V(DRV, 0) > 0.5, -5, 5) }

.ENDS E_U4_E2