Version 4
SHEET 1 1300 680
WIRE 304 -144 304 -256
WIRE 304 96 304 -64
WIRE 304 112 304 96
WIRE 240 192 32 192
WIRE 32 208 32 192
WIRE 304 288 304 208
FLAG 32 288 0
FLAG 304 288 0
FLAG 32 96 0
FLAG 32 16 VDD
FLAG 304 -256 VDD
FLAG 304 96 Vds
SYMBOL voltage 32 192 R0
WINDOW 123 0 0 Left 0
WINDOW 39 0 0 Left 0
SYMATTR InstName V1
SYMATTR Value PULSE(0 5 0 1p 1p 1e-3 20e-3)
SYMBOL ind 288 -160 R0
SYMATTR InstName L1
SYMATTR Value 500n
SYMBOL voltage 32 0 R0
WINDOW 123 0 0 Left 0
WINDOW 39 0 0 Left 0
SYMATTR InstName V2
SYMATTR Value 100m
SYMBOL GaN_E-HEMT_LT_GS66516T_L1V2_1 256 160 R0
SYMATTR InstName U1
TEXT 0 312 Left 2 !.tran 0 1.00007m 0.99999m 0.05n
