Version 4
SHEET 1 1572 680
WIRE 160 0 48 0
WIRE 304 0 240 0
WIRE 384 0 304 0
WIRE 560 0 448 0
WIRE 688 0 560 0
WIRE 48 16 48 0
WIRE 560 64 560 0
WIRE 688 64 688 0
WIRE 48 144 48 96
WIRE 304 176 304 0
WIRE 304 176 256 176
WIRE 384 208 304 208
WIRE 560 208 560 128
WIRE 688 208 688 144
WIRE 384 240 304 240
WIRE 64 256 -16 256
WIRE 192 256 144 256
WIRE 384 256 384 240
WIRE 496 256 464 256
WIRE -16 272 -16 256
WIRE 496 272 496 256
WIRE 256 288 256 272
WIRE 256 288 208 288
WIRE 256 352 256 288
WIRE 496 384 496 352
FLAG 48 144 0
FLAG 384 208 RTHCA
FLAG 496 384 0
FLAG 256 352 0
FLAG -16 352 0
FLAG 560 208 0
FLAG 688 208 0
SYMBOL voltage 48 0 R0
WINDOW 123 0 0 Left 0
WINDOW 39 0 0 Left 0
SYMATTR InstName V1
SYMATTR Value 200
SYMBOL ind 256 -16 R90
WINDOW 0 5 56 VBottom 2
WINDOW 3 32 56 VTop 2
SYMATTR InstName L2
SYMATTR Value 1m
SYMBOL GaN_E-HEMT_LT_GS66508B_L2V2 208 224 R0
SYMATTR InstName U1
SYMBOL res 480 240 R90
WINDOW 0 0 56 VBottom 2
WINDOW 3 32 56 VTop 2
SYMATTR InstName R1
SYMATTR Value 10
SYMBOL voltage 496 256 R0
WINDOW 123 0 0 Left 0
WINDOW 39 0 0 Left 0
SYMATTR InstName V2
SYMATTR Value 25
SYMBOL res 160 240 R90
WINDOW 0 0 56 VBottom 2
WINDOW 3 32 56 VTop 2
SYMATTR InstName R2
SYMATTR Value 30
SYMBOL voltage -16 256 R0
WINDOW 3 -147 128 Left 2
WINDOW 123 0 0 Left 0
WINDOW 39 0 0 Left 0
SYMATTR InstName V3
SYMATTR Value PULSE(-3 6 0 2N 2N 10u 20u)
SYMBOL diode 384 -16 M90
WINDOW 0 0 32 VBottom 2
WINDOW 3 32 32 VTop 2
SYMATTR InstName D1
SYMBOL res 672 48 R0
SYMATTR InstName R3
SYMATTR Value 400
SYMBOL cap 576 128 R180
WINDOW 0 24 56 Left 2
WINDOW 3 24 8 Left 2
SYMATTR InstName C1
SYMATTR Value 4.7µ
TEXT -164 408 Left 2 !.tran 0 200m 0 0.01
